
 OpenBabel08202116203D

 57 60  0  0  0  0  0  0  0  0999 V2000
   -0.1346   -0.1865    3.4781 C   0  0  0  0  0  0  0  0  0  0  0  0
   -0.1294   -0.0240    1.9645 C   0  0  0  0  0  0  0  0  0  0  0  0
    0.4644    1.3525    1.6282 C   0  0  0  0  0  0  0  0  0  0  0  0
   -0.2213    2.3874    1.6584 O   0  0  0  0  0  0  0  0  0  0  0  0
    1.8139    1.4396    1.3131 N   0  0  0  0  0  0  0  0  0  0  0  0
    2.6178    0.2853    1.3012 C   0  0  0  0  0  0  0  0  0  0  0  0
    1.9704   -0.9920    1.3787 C   0  0  0  0  0  0  0  0  0  0  0  0
    2.7416   -2.1538    1.3761 C   0  0  0  0  0  0  0  0  0  0  0  0
    4.1284   -2.0382    1.2936 C   0  0  0  0  0  0  0  0  0  0  0  0
    4.7038   -0.7460    1.2131 C   0  0  0  0  0  0  0  0  0  0  0  0
    3.9682    0.4033    1.2194 N   0  0  0  0  0  0  0  0  0  0  0  0
    6.1349   -0.6584    1.1157 N   0  0  0  0  0  0  0  0  0  0  0  0
    6.8287    0.1052    2.0794 C   0  0  0  0  0  0  0  0  0  0  0  0
    8.1604    0.5703    1.7766 C   0  0  0  0  0  0  0  0  0  0  0  0
    8.8711    1.2085    2.8143 C   0  0  0  0  0  0  0  0  0  0  0  0
    8.3652    1.4159    4.0354 N   0  0  0  0  0  0  0  0  0  0  0  0
    7.0687    0.9684    4.2494 C   0  0  0  0  0  0  0  0  0  0  0  0
    6.2885    0.3075    3.3113 N   0  0  0  0  0  0  0  0  0  0  0  0
    6.4324    1.2373    5.4792 N   0  0  0  0  0  0  0  0  0  0  0  0
    7.1591    1.5345    6.6572 C   0  0  0  0  0  0  0  0  0  0  0  0
    8.0062    2.6535    6.7250 C   0  0  0  0  0  0  0  0  0  0  0  0
    8.6523    2.9621    7.9286 C   0  0  0  0  0  0  0  0  0  0  0  0
    8.4682    2.1671    9.0779 C   0  0  0  0  0  0  0  0  0  0  0  0
    7.5856    1.0685    9.0041 C   0  0  0  0  0  0  0  0  0  0  0  0
    6.9429    0.7432    7.8081 C   0  0  0  0  0  0  0  0  0  0  0  0
    7.4043    0.3809   10.1874 O   0  0  0  0  0  0  0  0  0  0  0  0
    6.6972   -0.8514   10.0995 C   0  0  0  0  0  0  0  0  0  0  0  0
    9.2258    2.4102   10.2072 O   0  0  0  0  0  0  0  0  0  0  0  0
    8.4860    3.0056   11.2753 C   0  0  0  0  0  0  0  0  0  0  0  0
    9.4789    4.0528    8.0949 O   0  0  0  0  0  0  0  0  0  0  0  0
    9.8878    4.7200    6.9042 C   0  0  0  0  0  0  0  0  0  0  0  0
    8.7108    0.4015    0.5537 F   0  0  0  0  0  0  0  0  0  0  0  0
    0.5968   -1.1155    1.3604 O   0  0  0  0  0  0  0  0  0  0  0  0
   -1.5348   -0.1311    1.3855 C   0  0  0  0  0  0  0  0  0  0  0  0
    0.9076   -0.1644    3.8766 H   0  0  0  0  0  0  0  0  0  0  0  0
   -0.7247    0.6400    3.9412 H   0  0  0  0  0  0  0  0  0  0  0  0
   -0.5989   -1.1657    3.7463 H   0  0  0  0  0  0  0  0  0  0  0  0
    2.2336    2.3357    1.1864 H   0  0  0  0  0  0  0  0  0  0  0  0
    2.2538   -3.1383    1.4306 H   0  0  0  0  0  0  0  0  0  0  0  0
    4.7633   -2.9357    1.2959 H   0  0  0  0  0  0  0  0  0  0  0  0
    6.4446   -0.4602    0.1802 H   0  0  0  0  0  0  0  0  0  0  0  0
    9.9029    1.5700    2.6451 H   0  0  0  0  0  0  0  0  0  0  0  0
    5.5959    0.7093    5.6372 H   0  0  0  0  0  0  0  0  0  0  0  0
    8.1625    3.2883    5.8408 H   0  0  0  0  0  0  0  0  0  0  0  0
    6.2722   -0.1265    7.7640 H   0  0  0  0  0  0  0  0  0  0  0  0
    5.6288   -0.6701    9.8278 H   0  0  0  0  0  0  0  0  0  0  0  0
    7.1798   -1.5375    9.3624 H   0  0  0  0  0  0  0  0  0  0  0  0
    6.7745   -1.2668   11.1365 H   0  0  0  0  0  0  0  0  0  0  0  0
    8.0938    4.0038   10.9658 H   0  0  0  0  0  0  0  0  0  0  0  0
    7.6506    2.3336   11.5888 H   0  0  0  0  0  0  0  0  0  0  0  0
    9.2434    3.1106   12.0912 H   0  0  0  0  0  0  0  0  0  0  0  0
   10.6466    5.4568    7.2720 H   0  0  0  0  0  0  0  0  0  0  0  0
   10.3478    4.0042    6.1813 H   0  0  0  0  0  0  0  0  0  0  0  0
    9.0209    5.2484    6.4379 H   0  0  0  0  0  0  0  0  0  0  0  0
   -2.1433    0.7311    1.7502 H   0  0  0  0  0  0  0  0  0  0  0  0
   -1.4945   -0.1087    0.2706 H   0  0  0  0  0  0  0  0  0  0  0  0
   -2.0028   -1.0901    1.7105 H   0  0  0  0  0  0  0  0  0  0  0  0
  1  2  1  0  0  0  0
  1 35  1  0  0  0  0
  1 36  1  0  0  0  0
  1 37  1  0  0  0  0
  2  3  1  0  0  0  0
  2 33  1  0  0  0  0
  2 34  1  0  0  0  0
  3  4  2  0  0  0  0
  3  5  1  0  0  0  0
  5  6  1  0  0  0  0
  5 38  1  0  0  0  0
  6  7  1  0  0  0  0
  6 11  2  0  0  0  0
  7  8  2  0  0  0  0
  7 33  1  0  0  0  0
  8  9  1  0  0  0  0
  8 39  1  0  0  0  0
  9 10  2  0  0  0  0
  9 40  1  0  0  0  0
 10 11  1  0  0  0  0
 10 12  1  0  0  0  0
 12 13  1  0  0  0  0
 12 41  1  0  0  0  0
 13 14  1  0  0  0  0
 13 18  2  0  0  0  0
 14 15  2  0  0  0  0
 14 32  1  0  0  0  0
 15 16  1  0  0  0  0
 15 42  1  0  0  0  0
 16 17  2  0  0  0  0
 17 18  1  0  0  0  0
 17 19  1  0  0  0  0
 19 20  1  0  0  0  0
 19 43  1  0  0  0  0
 20 21  1  0  0  0  0
 20 25  2  0  0  0  0
 21 22  2  0  0  0  0
 21 44  1  0  0  0  0
 22 23  1  0  0  0  0
 22 30  1  0  0  0  0
 23 24  2  0  0  0  0
 23 28  1  0  0  0  0
 24 25  1  0  0  0  0
 24 26  1  0  0  0  0
 25 45  1  0  0  0  0
 26 27  1  0  0  0  0
 27 46  1  0  0  0  0
 27 47  1  0  0  0  0
 27 48  1  0  0  0  0
 28 29  1  0  0  0  0
 29 49  1  0  0  0  0
 29 50  1  0  0  0  0
 29 51  1  0  0  0  0
 30 31  1  0  0  0  0
 31 52  1  0  0  0  0
 31 53  1  0  0  0  0
 31 54  1  0  0  0  0
 34 55  1  0  0  0  0
 34 56  1  0  0  0  0
 34 57  1  0  0  0  0
M  END
$$$$
